psse/psse-model/src/test/resources/IEEE_14_bus_rev35_exported.rawx
{
  "network" : {
    "caseid" : {
      "fields" : ["ic", "sbase", "rev", "xfrrat", "nxfrat", "basfrq", "title1", "title2"],
      "data" : [0,100.0,35,0.0,0.0,60.0," 08/19/93 UW ARCHIVE           100.0  1962 W IEEE 14 Bus Test Case",""]
    },
    "bus" : {
      "fields" : ["ibus", "name", "baskv", "ide", "area", "zone", "owner", "vm", "va"],
      "data" : [
        [1,"Bus 1       ",138.0,3,1,1,1,1.06,0.0],
        [2,"Bus 2       ",138.0,2,1,1,1,1.045,-4.9826],
        [3,"Bus 3       ",138.0,2,1,1,1,1.01,-12.725],
        [4,"Bus 4       ",138.0,1,1,1,1,1.01767,-10.3128],
        [5,"Bus 5       ",138.0,1,1,1,1,1.01951,-8.7738],
        [6,"Bus 6       ",138.0,2,1,1,1,1.07,-14.2209],
        [7,"Bus 7       ",138.0,1,1,1,1,1.06152,-13.3596],
        [8,"Bus 8       ",138.0,2,1,1,1,1.09,-13.3596],
        [9,"Bus 9       ",138.0,1,1,1,1,1.05593,-14.9385],
        [10,"Bus 10      ",138.0,1,1,1,1,1.05099,-15.0972],
        [11,"Bus 11      ",138.0,1,1,1,1,1.05691,-14.7906],
        [12,"Bus 12      ",138.0,1,1,1,1,1.05519,-15.0755],
        [13,"Bus 13      ",138.0,1,1,1,1,1.05038,-15.1562],
        [14,"Bus 14      ",138.0,1,1,1,1,1.03553,-16.0336]
      ]
    },
    "load" : {
      "fields" : ["ibus", "loadid", "stat", "area", "zone", "pl", "ql", "ip", "iq", "yp", "yq", "owner", "scale"],
      "data" : [
        [2,"1 ",1,1,1,21.7,12.7,0.0,0.0,0.0,-0.0,1,1],
        [3,"1 ",1,1,1,94.2,19.0,0.0,0.0,0.0,-0.0,1,1],
        [4,"1 ",1,1,1,47.8,-3.9,0.0,0.0,0.0,-0.0,1,1],
        [5,"1 ",1,1,1,7.6,1.6,0.0,0.0,0.0,-0.0,1,1],
        [6,"1 ",1,1,1,11.2,7.5,0.0,0.0,0.0,-0.0,1,1],
        [9,"1 ",1,1,1,29.5,16.6,0.0,0.0,0.0,-0.0,1,1],
        [10,"1 ",1,1,1,9.0,5.8,0.0,0.0,0.0,-0.0,1,1],
        [11,"1 ",1,1,1,3.5,1.8,0.0,0.0,0.0,-0.0,1,1],
        [12,"1 ",1,1,1,6.1,1.6,0.0,0.0,0.0,-0.0,1,1],
        [13,"1 ",1,1,1,13.5,5.8,0.0,0.0,0.0,-0.0,1,1],
        [14,"1 ",1,1,1,14.9,5.0,0.0,0.0,0.0,-0.0,1,1]
      ]
    },
    "fixshunt" : {
      "fields" : ["ibus", "shntid", "stat", "gl", "bl"],
      "data" : [
        [9," 1",1,0.0,19.0]
      ]
    },
    "generator" : {
      "fields" : ["ibus", "machid", "pg", "qg", "qt", "qb", "vs", "ireg", "mbase", "zr", "zx", "rt", "xt", "gtap", "stat", "rmpct", "pt", "pb", "o1", "f1", "o2", "f2", "o3", "f3", "o4", "f4", "wmod", "wpf"],
      "data" : [
        [1,"1 ",232.392,-16.549,0.0,0.0,1.06,0,615.0,0.0,1.0,0.0,0.0,1.0,1,100.0,10000.0,-10000.0,1,1.0,0,1.0,0,1.0,0,1.0,0,1.0],
        [2,"1 ",40.0,43.556,50.0,-40.0,1.045,0,60.0,0.0,1.0,0.0,0.0,1.0,1,100.0,10000.0,-10000.0,1,1.0,0,1.0,0,1.0,0,1.0,0,1.0],
        [3,"1 ",0.0,25.075,40.0,0.0,1.01,0,60.0,0.0,1.0,0.0,0.0,1.0,1,100.0,10000.0,-10000.0,1,1.0,0,1.0,0,1.0,0,1.0,0,1.0],
        [6,"1 ",0.0,12.73,24.0,-6.0,1.07,0,25.0,0.0,1.0,0.0,0.0,1.0,1,100.0,10000.0,-10000.0,1,1.0,0,1.0,0,1.0,0,1.0,0,1.0],
        [8,"1 ",0.0,17.623,24.0,-6.0,1.09,0,25.0,0.0,1.0,0.0,0.0,1.0,1,100.0,10000.0,-10000.0,1,1.0,0,1.0,0,1.0,0,1.0,0,1.0]
      ]
    },
    "acline" : {
      "fields" : ["ibus", "jbus", "ckt", "rpu", "xpu", "bpu", "rate1", "rate2", "rate3", "gi", "bi", "gj", "bj", "stat", "met", "len", "o1", "f1", "o2", "f2", "o3", "f3", "o4", "f4"],
      "data" : [
        [1,2,"1 ",0.01938,0.05917,0.0528,0.0,0.0,0.0,0.0,0.0,0.0,0.0,1,1,0.0,1,1.0,0,1.0,0,1.0,0,1.0],
        [1,5,"1 ",0.05403,0.22304,0.0492,0.0,0.0,0.0,0.0,0.0,0.0,0.0,1,1,0.0,1,1.0,0,1.0,0,1.0,0,1.0],
        [2,3,"1 ",0.04699,0.19797,0.0438,0.0,0.0,0.0,0.0,0.0,0.0,0.0,1,1,0.0,1,1.0,0,1.0,0,1.0,0,1.0],
        [2,4,"1 ",0.05811,0.17632,0.034,0.0,0.0,0.0,0.0,0.0,0.0,0.0,1,1,0.0,1,1.0,0,1.0,0,1.0,0,1.0],
        [2,5,"1 ",0.05695,0.17388,0.0346,0.0,0.0,0.0,0.0,0.0,0.0,0.0,1,1,0.0,1,1.0,0,1.0,0,1.0,0,1.0],
        [3,4,"1 ",0.06701,0.17103,0.0128,0.0,0.0,0.0,0.0,0.0,0.0,0.0,1,1,0.0,1,1.0,0,1.0,0,1.0,0,1.0],
        [4,5,"1 ",0.01335,0.04211,0.0,0.0,0.0,0.0,0.0,0.0,0.0,0.0,1,1,0.0,1,1.0,0,1.0,0,1.0,0,1.0],
        [6,11,"1 ",0.09498,0.1989,0.0,0.0,0.0,0.0,0.0,0.0,0.0,0.0,1,1,0.0,1,1.0,0,1.0,0,1.0,0,1.0],
        [6,12,"1 ",0.12291,0.25581,0.0,0.0,0.0,0.0,0.0,0.0,0.0,0.0,1,1,0.0,1,1.0,0,1.0,0,1.0,0,1.0],
        [6,13,"1 ",0.06615,0.13027,0.0,0.0,0.0,0.0,0.0,0.0,0.0,0.0,1,1,0.0,1,1.0,0,1.0,0,1.0,0,1.0],
        [7,8,"1 ",0.0,0.17615,0.0,0.0,0.0,0.0,0.0,0.0,0.0,0.0,1,1,0.0,1,1.0,0,1.0,0,1.0,0,1.0],
        [7,9,"1 ",0.0,0.11001,0.0,0.0,0.0,0.0,0.0,0.0,0.0,0.0,1,1,0.0,1,1.0,0,1.0,0,1.0,0,1.0],
        [9,10,"1 ",0.03181,0.0845,0.0,0.0,0.0,0.0,0.0,0.0,0.0,0.0,1,1,0.0,1,1.0,0,1.0,0,1.0,0,1.0],
        [9,14,"1 ",0.12711,0.27038,0.0,0.0,0.0,0.0,0.0,0.0,0.0,0.0,1,1,0.0,1,1.0,0,1.0,0,1.0,0,1.0],
        [10,11,"1 ",0.08205,0.19207,0.0,0.0,0.0,0.0,0.0,0.0,0.0,0.0,1,1,0.0,1,1.0,0,1.0,0,1.0,0,1.0],
        [12,13,"1 ",0.22092,0.19988,0.0,0.0,0.0,0.0,0.0,0.0,0.0,0.0,1,1,0.0,1,1.0,0,1.0,0,1.0,0,1.0],
        [13,14,"1 ",0.17093,0.34802,0.0,0.0,0.0,0.0,0.0,0.0,0.0,0.0,1,1,0.0,1,1.0,0,1.0,0,1.0,0,1.0]
      ]
    },
    "transformer" : {
      "fields" : ["ibus", "jbus", "kbus", "ckt", "cw", "cz", "cm", "mag1", "mag2", "nmet", "name", "stat", "o1", "f1", "o2", "f2", "o3", "f3", "o4", "f4", "r1_2", "x1_2", "sbase1_2", "windv1", "nomv1", "ang1", "wdg1rate1", "wdg1rate2", "wdg1rate3", "cod1", "cont1", "rma1", "rmi1", "vma1", "vmi1", "ntp1", "tab1", "cr1", "cx1", "windv2", "nomv2"],
      "data" : [
        [4,7,0,"1 ",1,1,1,0.0,0.0,2,"        ",1,1,1.0,0,1.0,0,1.0,0,1.0,0.0,0.20912,100.0,0.978,0.0,0.0,0.0,0.0,0.0,0,0,1.5,0.51,1.5,0.51,159,0,0.0,0.0,1.0,0.0],
        [4,9,0,"1 ",1,1,1,0.0,0.0,2,"        ",1,1,1.0,0,1.0,0,1.0,0,1.0,0.0,0.55618,100.0,0.969,0.0,0.0,0.0,0.0,0.0,0,0,1.5,0.51,1.5,0.51,159,0,0.0,0.0,1.0,0.0],
        [5,6,0,"1 ",1,1,1,0.0,0.0,2,"        ",1,1,1.0,0,1.0,0,1.0,0,1.0,0.0,0.25202,100.0,0.932,0.0,0.0,0.0,0.0,0.0,0,0,1.5,0.51,1.5,0.51,159,0,0.0,0.0,1.0,0.0]
      ]
    },
    "area" : {
      "fields" : ["iarea", "isw", "pdes", "ptol", "arname"],
      "data" : [
        [1,2,0.0,999.99,"IEEE14      "]
      ]
    },
    "zone" : {
      "fields" : ["izone", "zoname"],
      "data" : [
        [1,"IEEE 14 "]
      ]
    },
    "owner" : {
      "fields" : ["iowner", "owname"],
      "data" : [
        [1,"1"]
      ]
    }
  }
}